Circuit: * F:\Projects\software-smps\ltspice\gate_driver\Draft1.asc

Direct Newton iteration for .op point succeeded.

Date: Wed Jul 19 06:17:29 2017
Total elapsed time: 0.159 seconds.

tnom = 27
temp = 27
method = modified trap
totiter = 3759
traniter = 3736
tranpoints = 1063
accept = 823
rejected = 240
matrix size = 24
fillins = 12
solver = Normal
Matrix Compiler1: 2.28 KB object code size  0.7/0.7/[0.3]
Matrix Compiler2: off  [0.4]/0.7/0.9

