Circuit: * F:\Projects\software-smps\ltspice\gate_driver\gate_driver.asc

WARNING: Specified period is not longer than the sum of Trise, Tfall, and Ton for v2.  Increasing period to 1.2e-006
.OP point found by inspection.

Date: Sun Jul 16 13:41:32 2017
Total elapsed time: 0.907 seconds.

tnom = 27
temp = 27
method = modified trap
totiter = 149888
traniter = 149888
tranpoints = 57195
accept = 46652
rejected = 10543
matrix size = 8
fillins = 0
solver = Normal
Matrix Compiler1: 300 bytes object code size  0.2/0.1/[0.0]
Matrix Compiler2: 588 bytes object code size  0.1/0.3/[0.1]

